37

C          1.07611       -0.23793       -0.13271
O          0.54719        1.00653        0.00772
C         -0.84522        1.16995       -0.31625
C         -1.73060        0.99939        0.90506
O          0.43246       -1.24724       -0.38140
C          2.56566       -0.18416        0.02288
C          3.20354        1.18819        0.19748
C          4.67583        1.16463        0.57123
C          5.20882        2.49115        0.98047
O          6.19567        2.35492        1.89669
C          6.83405        3.55657        2.34676
C          6.13708        4.06923        3.58973
O          4.73984        3.54893        0.58696
C          5.37819        0.00600        0.50877
C          6.84729       -0.18950        0.79074
N          4.72265       -1.16075        0.15533
C          3.34836       -1.29020       -0.00050
C          2.86214       -2.70872       -0.16175
H         -1.14861        0.49321       -1.12222
H         -0.95920        2.18989       -0.69922
H         -1.63131       -0.00414        1.32857
H         -2.78039        1.16515        0.64189
H         -1.45452        1.71229        1.68851
H          2.66809        1.73407        0.98377
H          3.08747        1.74472       -0.74278
H          6.87017        4.31697        1.55829
H          7.87003        3.29363        2.58692
H          5.12119        4.40056        3.35429
H          6.68725        4.90721        4.02615
H          6.04954        3.27371        4.33711
H          7.42223        0.72927        0.90024
H          7.31426       -0.74087       -0.03344
H          6.96755       -0.78465        1.70301
H          5.27352       -2.01182        0.13678
H          3.70327       -3.41267       -0.20788
H          2.30033       -2.84110       -1.08959
H          2.25269       -3.00740        0.69619
